18
	Energy:      46.6836930
C         -2.03723        1.30516       -0.32219
C         -2.04168        0.04411       -1.22646
C         -0.67158        2.03997       -0.28727
H         -2.33876        0.97060        0.69539
H         -2.78926        2.04782       -0.66419
C          0.45993        1.01677       -0.24834
H         -0.64589        2.73429        0.57860
H         -0.54230        2.64870       -1.20950
C          0.45378        0.13673       -1.52637
H          0.27258        0.38454        0.64742
H          1.45944        1.48780       -0.12445
C         -0.91563        0.10802       -2.25446
H          0.76319       -0.88521       -1.21303
H          1.19963        0.49747       -2.26641
H         -1.05298        1.04076       -2.84513
H         -0.94044       -0.74482       -2.96476
H         -3.04293       -0.07560       -1.69487
H         -1.84690       -0.86261       -0.61237
